OPT_V9/Results/My_campus_w_initial_sub_3_active_25_03_14_24/network_debug.txt
Pandapower Network Debug Info
==================================================

BUS:
          name  vn_kv type  zone  in_service   geo
0        Bus 8    0.4    b  None        True  None
1        Bus 9    0.4    b  None        True  None
2       Bus 10    0.4    b  None        True  None
3       Bus 11    0.4    b  None        True  None
4       Bus 16    0.4    b  None        True  None
5       Bus 17    0.4    b  None        True  None
6       Bus 18    0.4    b  None        True  None
7       Bus 19    0.4    b  None        True  None
8       Bus 20    0.4    b  None        True  None
9       Bus 21   15.0    b  None        True  None
10      Bus 22   15.0    b  None        True  None
11      Bus 23   15.0    b  None        True  None
12      Bus 24   15.0    b  None        True  None
13      Bus 25   15.0    b  None        True  None
14      Bus 26   15.0    b  None        True  None
15    Sub MV 2   15.0    b  None        True  None
16    Sub LV 2    0.4    b  None        True  None
17    Sub MV 5   15.0    b  None        True  None
18    Sub LV 5    0.4    b  None        True  None
19  Slack HV 0   70.0    b  None        True  None
20  Slack MV 0   15.0    b  None        True  None
21  Slack HV 1   70.0    b  None        True  None
22  Slack MV 1   15.0    b  None        True  None
--------------------------------------------------

LOAD:
          name  bus      p_mw    q_mvar  const_z_percent  const_i_percent  sn_mva  scaling  in_service type
0    Load 8 T1    0 -0.005700 -0.003357              0.0              0.0     NaN      1.0        True  wye
1    Load 9 T1    1 -0.003122 -0.000013              0.0              0.0     NaN      1.0        True  wye
2   Load 10 T1    2 -0.004132  0.000000              0.0              0.0     NaN      1.0        True  wye
3   Load 11 T1    3 -0.003088  0.000000              0.0              0.0     NaN      1.0        True  wye
4   Load 16 T1    4 -0.003618 -0.001071              0.0              0.0     NaN      1.0        True  wye
5   Load 17 T1    5 -0.001914  0.000586              0.0              0.0     NaN      1.0        True  wye
6   Load 18 T1    6 -0.005367 -0.001698              0.0              0.0     NaN      1.0        True  wye
7   Load 19 T1    7 -0.003057 -0.002857              0.0              0.0     NaN      1.0        True  wye
8   Load 20 T1    8 -0.004537 -0.003737              0.0              0.0     NaN      1.0        True  wye
9   Load 21 T1    9  0.004572  0.004572              0.0              0.0     NaN      1.0        True  wye
10  Load 22 T1   10  0.006089  0.004089              0.0              0.0     NaN      1.0        True  wye
11  Load 23 T1   11  0.006722  0.005722              0.0              0.0     NaN      1.0        True  wye
12  Load 24 T1   12  0.004082  0.000082              0.0              0.0     NaN      1.0        True  wye
13  Load 25 T1   13  0.007424  0.005424              0.0              0.0     NaN      1.0        True  wye
14  Load 26 T1   14  0.007630  0.006630              0.0              0.0     NaN      1.0        True  wye
--------------------------------------------------

EXT_GRID:
        name  bus  vm_pu  va_degree  slack_weight  in_service
0  ExtGrid 0   19    1.0        0.0           1.0        True
1  ExtGrid 1   21    1.0        0.0           1.0        True
--------------------------------------------------

LINE:
       name std_type  from_bus  to_bus  length_km  r_ohm_per_km  x_ohm_per_km  c_nf_per_km  g_us_per_km  max_i_ka   df  parallel  type  in_service   geo
0    Line 0     None        20      15   0.400000        0.5502         0.429          0.0          0.0      0.23  1.0         1  None        True  None
1    Line 7     None        22      17   1.100000        0.5502         0.429          0.0          0.0      0.23  1.0         1  None        True  None
2    Line 8     None        15       9   0.316228        0.5502         0.429          0.0          0.0      0.23  1.0         1  None        True  None
3   Line 17     None        17      12   0.141421        0.5502         0.429          0.0          0.0      0.23  1.0         1  None        True  None
4   Line 18     None        17      13   0.223607        0.5502         0.429          0.0          0.0      0.23  1.0         1  None        True  None
5   Line 20     None        16       0   0.136015        0.5502         0.429          0.0          0.0      0.23  1.0         1  None        True  None
6   Line 34     None        18       5   0.225610        0.5502         0.429          0.0          0.0      0.23  1.0         1  None        True  None
7   Line 36     None        18       7   0.196469        0.5502         0.429          0.0          0.0      0.23  1.0         1  None        True  None
8   Line 37     None        18       8   0.050000        0.5502         0.429          0.0          0.0      0.23  1.0         1  None        True  None
9   Line 38     None        10       9   0.141421        0.5502         0.429          0.0          0.0      0.23  1.0         1  None        True  None
10  Line 40     None        11      10   0.200000        0.5502         0.429          0.0          0.0      0.23  1.0         1  None        True  None
11  Line 43     None        14      13   0.200000        0.5502         0.429          0.0          0.0      0.23  1.0         1  None        True  None
12  Line 44     None         1       0   0.172047        0.5502         0.429          0.0          0.0      0.23  1.0         1  None        True  None
13  Line 46     None         3       0   0.194165        0.5502         0.429          0.0          0.0      0.23  1.0         1  None        True  None
14  Line 47     None         2       1   0.263059        0.5502         0.429          0.0          0.0      0.23  1.0         1  None        True  None
15  Line 52     None         8       4   0.353836        0.5502         0.429          0.0          0.0      0.23  1.0         1  None        True  None
16  Line 53     None         6       5   0.253180        0.5502         0.429          0.0          0.0      0.23  1.0         1  None        True  None
--------------------------------------------------

TRAFO:
                  name std_type  hv_bus  lv_bus  sn_mva  vn_hv_kv  vn_lv_kv  vk_percent  vkr_percent  pfe_kw  i0_percent  shift_degree tap_side  tap_neutral  tap_min  tap_max  tap_step_percent  tap_step_degree  tap_pos tap_changer_type  id_characteristic_table  tap_dependency_table  parallel   df  in_service
0  MV/LV Transformer 2     None      15      16    10.0      15.0       0.4        0.01         0.01    0.01        0.01           0.0     None          NaN      NaN      NaN               NaN              NaN      NaN              NaN                     <NA>                 False         1  1.0        True
1  MV/LV Transformer 5     None      17      18    10.0      15.0       0.4        0.01         0.01    0.01        0.01           0.0     None          NaN      NaN      NaN               NaN              NaN      NaN              NaN                     <NA>                 False         1  1.0        True
2  Slack Transformer 0     None      19      20    40.0      70.0      15.0        0.01         0.01    0.01        0.01           0.0     None          NaN      NaN      NaN               NaN              NaN      NaN              NaN                     <NA>                 False         1  1.0        True
3  Slack Transformer 1     None      21      22    40.0      70.0      15.0        0.01         0.01    0.01        0.01           0.0     None          NaN      NaN      NaN               NaN              NaN      NaN              NaN                     <NA>                 False         1  1.0        True
--------------------------------------------------

RES_BUS:
       vm_pu     va_degree      p_mw    q_mvar
0   1.008599  2.434115e-01 -0.005700 -0.003357
1   1.012823  4.306654e-01 -0.003122 -0.000013
2   1.016496  5.928457e-01 -0.004132  0.000000
3   1.010638  3.337662e-01 -0.003088  0.000000
4   1.007403  1.366760e-01 -0.003618 -0.001071
5   1.006232  2.022799e-01 -0.001914  0.000586
6   1.011986  3.241249e-01 -0.005367 -0.001698
7   1.003547 -1.767305e-02 -0.003057 -0.002857
8   1.002027  1.583168e-02 -0.004537 -0.003737
9   0.999967  6.529546e-04  0.004572  0.004572
10  0.999960  6.494285e-04  0.006089  0.004089
11  0.999955  6.629021e-04  0.006722  0.005722
12  0.999987  5.328117e-04  0.004082  0.000082
13  0.999975  6.041567e-04  0.007424  0.005424
14  0.999969  6.232325e-04  0.007630  0.006630
15  0.999989  6.162174e-04  0.000000  0.000000
16  0.999989  6.146508e-04  0.000000  0.000000
17  0.999989  5.942540e-04  0.000000  0.000000
18  0.999989  5.895615e-04  0.000000  0.000000
19  1.000000  0.000000e+00 -0.001536 -0.016149
20  1.000000  2.026717e-06  0.000000  0.000000
21  1.000000  0.000000e+00 -0.000774 -0.008446
22  1.000000  9.233000e-07  0.000000  0.000000
--------------------------------------------------

RES_LINE:
    p_from_mw   q_from_mvar   p_to_mw  q_to_mvar         pl_mw       ql_mvar  i_from_ka   i_to_ka      i_ka  vm_from_pu  va_from_degree  vm_to_pu  va_to_degree  loading_percent
0    0.001526  1.214916e-02 -0.001526  -0.012149  1.466529e-07  1.143477e-07   0.000471  0.000471  0.000471    1.000000    2.026717e-06  0.999989      0.000616         0.204912
1    0.000764  4.445856e-03 -0.000764  -0.004446  5.473884e-08  4.268077e-08   0.000174  0.000174  0.000174    1.000000    9.233000e-07  0.999989      0.000594         0.075492
2    0.017383  1.438317e-02 -0.017383  -0.014383  3.936512e-07  3.069363e-07   0.000868  0.000868  0.000868    0.999989    6.162174e-04  0.999967      0.000653         0.377578
3    0.004082  8.176610e-05 -0.004082  -0.000082  5.764129e-09  4.494386e-09   0.000157  0.000157  0.000157    0.999989    5.942540e-04  0.999987      0.000533         0.068322
4    0.015054  1.205387e-02 -0.015054  -0.012054  2.033659e-07  1.585677e-07   0.000742  0.000742  0.000742    0.999989    5.942540e-04  0.999975      0.000604         0.322736
5   -0.015867 -3.234053e-03  0.015990   0.003330  1.226525e-04  9.563415e-05   0.023374  0.023374  0.023374    0.999989    6.146508e-04  1.008599      0.243412        10.162404
6   -0.007213 -1.058843e-03  0.007255   0.001091  4.123907e-05  3.215478e-05   0.010523  0.010523  0.010523    0.999989    5.895615e-04  1.006232      0.202280         4.575370
7   -0.003045 -2.848060e-03  0.003057   0.002857  1.174660e-05  9.159020e-06   0.006019  0.006019  0.006019    0.999989    5.895615e-04  1.003547     -0.017673         2.616740
8   -0.008122 -4.782843e-03  0.008138   0.004795  1.527685e-05  1.191161e-05   0.013605  0.013605  0.013605    0.999989    5.895615e-04  1.002027      0.015832         5.915387
9   -0.012811 -9.811034e-03  0.012811   0.009811  9.005215e-08  7.021514e-08   0.000621  0.000621  0.000621    0.999960    6.494285e-04  0.999967      0.000653         0.270048
10  -0.006722 -5.722215e-03  0.006722   0.005722  3.811737e-08  2.972074e-08   0.000340  0.000340  0.000340    0.999955    6.629021e-04  0.999960      0.000649         0.147740
11  -0.007630 -6.629791e-03  0.007630   0.006630  4.996998e-08  3.896242e-08   0.000389  0.000389  0.000389    0.999969    6.232325e-04  0.999975      0.000604         0.169157
12   0.007239  9.828817e-07 -0.007208   0.000023  3.021925e-05  2.356245e-05   0.010316  0.010316  0.010316    1.012823    4.306654e-01  1.008599      0.243412         4.485080
13   0.003088  2.981590e-16 -0.003081   0.000005  6.232308e-06  4.859433e-06   0.004410  0.004410  0.004410    1.010638    3.337662e-01  1.008599      0.243412         1.917301
14   0.004132  1.828507e-16 -0.004117   0.000012  1.494478e-05  1.165269e-05   0.005867  0.005867  0.005867    1.016496    5.928457e-01  1.012823      0.430665         2.550759
15  -0.003601 -1.057697e-03  0.003618   0.001071  1.706665e-05  1.330715e-05   0.005406  0.005406  0.005406    1.002027    1.583168e-02  1.007403      0.136676         2.350305
16   0.005367  1.697542e-03 -0.005340  -0.001677  2.693840e-05  2.100432e-05   0.008029  0.008029  0.008029    1.011986    3.241249e-01  1.006232      0.202280         3.490781
--------------------------------------------------

RES_TRAFO:
    p_hv_mw  q_hv_mvar   p_lv_mw  q_lv_mvar    pl_mw  ql_mvar   i_hv_ka   i_lv_ka  vm_hv_pu  va_hv_degree  vm_lv_pu  va_lv_degree  loading_percent
0 -0.015857  -0.002234  0.015867   0.003234  0.00001    0.001  0.000616  0.023374  0.999989      0.000616  0.999989  6.146508e-04         0.161937
1 -0.018371  -0.007690  0.018381   0.008690  0.00001    0.001  0.000767  0.029347  0.999989      0.000594  0.999989  5.895615e-04         0.203321
2  0.001536   0.016149 -0.001526  -0.012149  0.00001    0.004  0.000134  0.000471  1.000000      0.000000  1.000000  2.026717e-06         0.040555
3  0.000774   0.008446 -0.000764  -0.004446  0.00001    0.004  0.000070  0.000174  1.000000      0.000000  1.000000  9.233000e-07         0.021203
--------------------------------------------------

RES_EXT_GRID:
       p_mw    q_mvar
0  0.001536  0.016149
1  0.000774  0.008446
--------------------------------------------------

RES_LOAD:
        p_mw    q_mvar
0  -0.005700 -0.003357
1  -0.003122 -0.000013
2  -0.004132  0.000000
3  -0.003088  0.000000
4  -0.003618 -0.001071
5  -0.001914  0.000586
6  -0.005367 -0.001698
7  -0.003057 -0.002857
8  -0.004537 -0.003737
9   0.004572  0.004572
10  0.006089  0.004089
11  0.006722  0.005722
12  0.004082  0.000082
13  0.007424  0.005424
14  0.007630  0.006630
--------------------------------------------------

BUS_GEODATA:
        x      y
0    11.0   48.0
1    25.0   38.0
2    51.0   42.0
3     0.0   64.0
4   129.0  138.0
5   105.0   88.0
6   130.0   92.0
7    81.0  115.0
8   103.0  114.0
9    10.0   70.0
10   20.0   80.0
11   40.0   80.0
12   90.0  120.0
13  120.0  120.0
14  120.0  100.0
15    0.0   40.0
16    0.5   39.5
17  100.0  110.0
18  100.5  109.5
19    0.0    0.0
20    0.5   -0.5
21  100.0    0.0
22  100.5   -0.5
--------------------------------------------------
